[TITLE]
;;Project Title/Notes
Exported by StormDesk 2.1.0

[OPTIONS]
;;Option             Value
FLOW_UNITS           CMS
INFILTRATION         HORTON
FLOW_ROUTING         DYNWAVE
LINK_OFFSETS         ELEVATION
MIN_SLOPE            0
ALLOW_PONDING        YES
SKIP_STEADY_STATE    NO

START_DATE           01/01/2020
START_TIME           00:00:00
REPORT_START_DATE    01/01/2020
REPORT_START_TIME    00:00:00
END_DATE             01/01/2020
END_TIME             02:15:00
SWEEP_START          01/01
SWEEP_END            12/31
DRY_DAYS             5
REPORT_STEP          00:10:00
WET_STEP             00:05:00
DRY_STEP             01:00:00
ROUTING_STEP         0:00:30 
RULE_STEP            00:00:00

INERTIAL_DAMPING     PARTIAL
NORMAL_FLOW_LIMITED  BOTH
FORCE_MAIN_EQUATION  H-W
VARIABLE_STEP        0.75
LENGTHENING_STEP     0
MIN_SURFAREA         12.566
MAX_TRIALS           8
HEAD_TOLERANCE       0.005
SYS_FLOW_TOL         5
LAT_FLOW_TOL         5
MINIMUM_STEP         0.5
THREADS              8

[EVAPORATION]
;;Data Source    Parameters
;;-------------- ----------------
CONSTANT         0
DRY_ONLY         NO

[RAINGAGES]
;;Name           Format    Interval SCF      Source    
;;-------------- --------- ------ ------ ----------
1                INTENSITY 0:01     1.0      TIMESERIES p=2             

[SUBCATCHMENTS]
;;Name           Rain Gage        Outlet           Area     %Imperv  Width    %Slope   CurbLen  SnowPack        
;;-------------- ---------------- ---------------- -------- -------- -------- -------- -------- ----------------
C3               1                XZnode1377       9.516893978 0.629430389 308.494634923 13.79372597 0                        
C4               1                XZnode467        84.212853258 0.633992593 917.675614027 2.5      0                        
C5               1                XZnode3150       69.336898133 0.357517005 832.687805441 10.83140278 0                        
C1632            1                XZnode1439       70.114411982 0.46829774 837.343489748 5.64959574 0                        
C2185            1                XZnode3203       30.749136501 0.323759062 554.519039356 19.7025032 0                        
C2252            1                XZnode3282       39.152827817 0.577206256 625.722205272 7.43383074 0                        
C2254            1                XZnode2948       4.450691399 0.839023763 210.966618199 2.5      0                        
C2255            1                XZnode2944       40.384337841 0.792453312 635.486725597 2.5      0                        
C2256            1                XZnode3223       11.448296052 0.195777194 338.353307241 15.81665421 0                        
C2257            1                XZnode3220       26.153582163 0.436539677 511.405730936 7.22424412 0                        
C2258            1                XZnode3238       11.949423893 0.804002193 345.679387484 2.93707418 0                        
C2260            1                XZnode2890       17.021583284 0.800475994 412.572215304 2.5      0                        
C2262            1                XZnode1441       1.965552447 0.577390669 140.198161419 16.45812607 0                        
C2264            1                XZnode2905       0.52090753 0.752224771 72.173923956 2.62698698 0                        
C2265            1                XZnode2845       5.145312825 0.783693657 226.832820047 2.50082898 0                        
C2266            1                XZnode2877       0.259253342 0.976507592 50.916926625 1.31347346 0                        
C2267            1                XZnode2898       5.312072951 0.723999652 230.479347263 3.74407554 0                        
C2268            1                XZnode2726       4.5321017 0.79747342 212.88733405 2.62694693 0                        
C2269            1                XZnode2931       11.434543628 0.642734044 338.150020374 6.51806831 0                        
C2270            1                XZnode2750       47.927539884 0.456716746 692.297189682 13.96269703 0                        
C2271            1                XZnode1408       11.278217054 0.746958837 335.830568208 3.82947588 0                        
C2272            1                XZnode3275       4.10345223 0.792835232 202.569796132 1.85758865 0                        
C2273            1                XZnode1423       10.435253698 0.42856978 323.0364329 8.37188911 0                        
C2274            1                XZnode2884       13.479139166 0.659083236 367.139471667 4.15366268 0                        
C2275            1                XZnode1393       2.002405037 0.81174261 141.506361585 2.5      0                        
C2276            1                XZnode3306       8.039880701 0.758520009 283.546833896 2.5      0                        
C2277            1                XZnode492        4.586851197 0.697739625 214.169353476 2.5      0                        
C2278            1                XZnode1419       14.664830474 0.731841267 382.946869347 2.5      0                        
C2279            1                XZnode2908       49.036924315 0.728900309 700.263695441 2.93708754 0                        
C2282            1                XZnode2722       15.77006211 0.754143628 397.115375045 2.5      0                        
C2283            1                XZnode2747       8.167520086 0.624054511 285.788734665 4.73590994 0                        
C2284            1                XZnode1420       5.742461168 0.83603225 239.63432909 1.31351352 0                        
C2285            1                XZnode3281       1.836403329 0.730980611 135.513959774 10.34514618 0                        
C2286            1                XZnode2855       1.034578391 0.86826002 101.714226675 5.25401402 0                        
C2287            1                XZnode486        12.396799898 0.728187276 352.090895902 2.0768218 0                        
C2288            1                XZnode3171       6.735281285 0.779821586 259.524204739 2.93706965 0                        
C2289            1                XZnode3235       7.878661037 0.815569115 280.689526646 5.41570377 0                        
C2290            1                XZnode3236       5.166658776 0.840010344 227.302854713 1.85754621 0                        
C2291            1                XZnode469        12.281833886 0.751900938 350.454474737 2.5      0                        
C2292            1                XZnode3143       6.310846971 0.59777189 251.213991865 4.73590422 0                        
C2293            1                XZnode2946       1.832858379 0.336335805 135.383100099 7.71856833 0                        
C2294            1                XZnode2946       6.129309892 0.699083994 247.574431065 7.25772381 0                        
C2295            1                XZnode1380       8.506316047 0.748838495 291.655893947 4.15365648 0                        
C2296            1                XZnode3316       18.435145366 0.678958354 429.361681638 2.5      0                        
C2298            1                XZnode1358       6.315914226 0.773551793 251.314826984 2.5      0                        
C2299            1                XZnode1356       19.726517646 0.741634802 444.14544517 2.5      0                        
C2300            1                XZnode2830       0.222055541 0.817522442 47.12276953 2.62702703 0                        
C2301            1                XZnode2853       8.451861788 0.748598633 290.720859045 4.15368176 0                        
C2302            1                XZnode2854       3.117827206 0.791975689 176.573701484 2.62698698 0                        
C2303            1                XZnode2848       3.724155157 0.82485195 192.980702577 4.13412285 0                        
C2304            1                XZnode3296       4.943003694 0.75834726 222.328668733 10.38412189 0                        
C2305            1                XZnode2730       4.268075799 0.796299659 206.593218636 9.19451427 0                        
C2306            1                XZnode2900       2.647341975 0.806743166 162.706544877 1.31349349 0                        
C2307            1                XZnode2836       6.588132342 0.801533886 256.673573663 3.9405005 0                        
C2308            1                XZnode1386       0.372248246 0.752843641 61.012150083 11.29914284 0                        
C2309            1                XZnode2897       4.09845364 0.782472368 202.446379079 2.78634048 0                        
C2310            1                XZnode3295       4.489296752 0.806858539 211.879606195 1.85756028 0                        
C2311            1                XZnode3294       7.118193088 0.763564214 266.799420695 3.71512055 0                        
C2312            1                XZnode2734       4.648684652 0.808791881 215.608085467 2.36794519 0                        
C2313            1                XZnode2731       6.032821196 0.868875975 245.618020428 1.16098583 0                        
C2314            1                XZnode1416       3.301115267 0.791537669 181.689715374 4.05510855 0                        
C2315            1                XZnode1360       5.500898944 0.775261766 234.539952761 4.15364361 0                        
C2316            1                XZnode1361       3.585327897 0.794887146 189.34962099 1.46853936 0                        
C2317            1                XZnode519        7.537768342 0.751526707 274.549965253 3.71512055 0                        
C2318            1                XZnode2741       8.9968747 0.764053829 299.94790715 0.65673673 0                        
C2319            1                XZnode2739       2.407990597 0.794574041 155.177014961 2.70784593 0                        
C2320            1                XZnode2846       8.418990633 0.660683349 290.1549695 2.93707418 0                        
C2321            1                XZnode519        8.501646684 0.706170312 291.575833773 8.52508163 0                        
C2322            1                XZnode1409       1.881286111 0.650214933 137.15998362 13.4753809 0                        
C2323            1                XZnode1409       5.457720069 0.677398676 233.617637805 15.23319244 0                        
C2324            1                XZnode2846       3.801408354 0.846375326 194.972007064 1.91475165 0                        
C2325            1                XZnode1412       7.506648033 0.742452231 273.98262779 1.85753202 0                        
C2326            1                XZnode3295       5.596601303 0.768150362 236.571369843 4.15365648 0                        
C2327            1                XZnode2733       5.445650012 0.804622012 233.359165496 2.93705177 0                        
C2328            1                XZnode2735       4.565620621 0.768563424 213.673129353 5.87412167 0                        
C2329            1                XZnode3197       11.125893363 0.81926708 333.554993407 0.2321915 0                        
C2330            1                XZnode507        10.981183618 0.681898808 331.378689983 1.46852589 0                        
C2331            1                XZnode478        2.860248709 0.810968553 169.122698326 3.9405005 0                        
C2332            1                XZnode3135       11.056149336 0.739894591 332.507884663 5.41568708 0                        
C2333            1                XZnode3307       0.138685198 0.924497983 37.240461588 2.07680297 0                        
C2334            1                XZnode3210       2.015231971 0.820072145 141.958866274 3.71513486 0                        
C2335            1                XZnode3212       4.359556381 0.780759303 208.795507168 2.79600644 0                        
C2336            1                XZnode1349       6.201092821 0.811775414 249.019935361 4.73585701 0                        
C2337            1                XZnode5042       7.028158938 0.737243516 265.106750919 5.41568232 0                        
C2338            1                XZnode3197       13.264710021 0.817372791 364.207496091 2.5      0                        
C2339            1                XZnode1343       1.838812285 0.85182264 135.602812853 1.85758865 0                        
C2340            1                XZnode3292       6.302501833 0.815786011 251.04784071 2.62702703 0                        
C2341            1                XZnode1343       0.251590804 0.661583423 50.158828105 4.50842953 0                        
C2342            1                XZnode1428       5.863454378 0.764266201 242.145707757 1.31347346 0                        
C2343            1                XZnode1337       3.972834866 0.743728256 199.319714668 3.99484777 0                        
C2344            1                XZnode2930       3.854484888 0.773118509 196.328420962 4.57375574 0                        
C2345            1                XZnode1398       2.563972618 0.779640707 160.124096199 1.31351352 0                        
C2346            1                XZnode1352       5.560934473 0.818955139 235.816336863 1.85754621 0                        
C2347            1                XZnode3258       15.125012437 0.801823043 388.908889545 4.73590708 0                        
C2348            1                XZnode3257       1.917205743 0.781959208 138.463198834 6.69757223 0                        
C2349            1                XZnode1393       3.951089507 0.812450598 198.773476769 4.28149796 0                        
C2350            1                XZnode1323       4.204518267 0.62326475 205.049220119 15.81660652 0                        
C2351            1                XZnode1373       5.206027901 0.820814975 228.167217209 2.62698698 0                        
C2352            1                XZnode498        3.696911754 0.682502595 192.273548717 1.85756028 0                        
C2353            1                XZnode3130       4.576609048 0.769297383 213.930106522 5.41569901 0                        
C2354            1                XZnode1395       4.807856034 0.700092705 219.268238329 3.9405005 0                        
C2355            1                XZnode3208       3.55837356 0.827874524 188.636517132 6.40537739 0                        
C2356            1                XZnode3258       6.55092424 0.766163614 255.947733727 9.56242275 0                        
C2357            1                XZnode3207       3.751212451 0.698053598 193.680470135 3.28374171 0                        
C2358            1                XZnode3258       5.369200895 0.270602018 231.715361928 4.73590708 0                        
C2359            1                XZnode1398       4.058853903 0.817215229 201.465974857 3.96777129 0                        
C2360            1                XZnode1398       3.856329315 0.757036126 196.375388358 6.46822786 0                        
C2361            1                XZnode2933       2.764999683 0.798901093 166.282881944 2.70785069 0                        
C2362            1                XZnode2755       6.912052715 0.823791008 262.907830137 6.69757605 0                        
C2363            1                XZnode3326       15.83510262 0.650073312 397.933444435 5.61129475 0                        
C2364            1                XZnode1378       1.965638357 0.534889832 140.201225262 3.01857114 0                        
C2365            1                XZnode1405       2.746228005 0.820764691 165.717470558 5.87414408 0                        
C2366            1                XZnode1377       6.214710154 0.40473188 249.293203963 14.20763493 0                        
C2367            1                XZnode1378       0.641938107 0.59804761 80.121040146 3.9405005 0                        
C2368            1                XZnode496        11.123074304 0.778818325 333.512732955 2.62698698 0                        
C2369            1                XZnode1379       5.757029403 0.613907821 239.938104573 2.93707418 0                        
C2370            1                XZnode3325       10.890558331 0.618912295 330.008459449 2.93710113 0                        
C2371            1                XZnode3311       9.179712335 0.629800118 302.980400934 9.19447422 0                        
C2372            1                XZnode1402       10.255667719 0.482594305 320.24471454 8.30730057 0                        
C2373            1                XZnode3227       9.473687342 0.731213705 307.793556498 6.50565195 0                        
C2374            1                XZnode3318       9.798246367 0.792390697 313.021506719 1.31355357 0                        
C2375            1                XZnode1403       5.798635731 0.47380961 240.803565818 3.94054055 0                        
C2376            1                XZnode1402       9.221793804 0.519998838 303.674065478 16.45806885 0                        
C2377            1                XZnode3273       2.02158646 0.75598695 142.182504547 10.58979416 0                        
C2378            1                XZnode2756       2.602475399 0.763533926 161.321895554 5.87413025 0                        
C2379            1                XZnode3275       5.149392709 0.805313594 226.922733744 2.9370966 0                        
C2380            1                XZnode1424       5.316505168 0.795275934 230.575479354 5.57268095 0                        
C2381            1                XZnode1424       12.793017482 0.753605959 357.673279437 1.85754621 0                        
C2382            1                XZnode3282       20.880259975 0.47308747 456.949231041 8.30730057 0                        
C2383            1                XZnode1430       3.081560115 0.753641973 175.543730033 19.52658653 0                        
C2384            1                XZnode2334       9.85720789 0.745863813 313.96190677 10.58979416 0                        
C2385            1                XZnode1430       12.54468646 0.581025137 354.184788781 16.45808792 0                        
C2386            1                XZnode1430       8.383253135 0.553846852 289.53847991 10.58976555 0                        
C2387            1                XZnode2341       15.033408458 0.702400789 387.729396074 9.56241417 0                        
C2388            1                XZnode3220       5.796053625 0.590798708 240.749945483 6.69753265 0                        
C2389            1                XZnode3206       7.801070959 0.291518844 279.30397346 13.13496494 0                        
C2390            1                XZnode3200       20.216347939 0.62124705 449.625932742 8.30731297 0                        
C2391            1                XZnode3204       22.021211121 0.714124738 469.267632816 6.69758415 0                        
C2392            1                XZnode3228       11.622984762 0.784021767 340.924988261 12.7030592 0                        
C2393            1                XZnode3200       23.748149256 0.660430233 487.320728639 10.58974552 0                        
C2394            1                XZnode3205       5.620732336 0.764776693 237.08083718 12.61580276 0                        
C2395            1                XZnode3206       18.65712365 0.393226637 431.938926815 12.2536993 0                        
C2396            1                XZnode3132       2.066492179 0.775359085 143.752988789 2.93703842 0                        
C2397            1                XZnode478        6.455987463 0.759848005 254.086352698 2.93706512 0                        
C2398            1                XZnode3146       4.300926383 0.742652576 207.386749405 4.78683615 0                        
C2399            1                XZnode2866       5.0592173 0.757249588 224.927039275 4.15364361 0                        
C2400            1                XZnode3232       5.645744642 0.74653831 237.607757502 7.65903091 0                        
C2401            1                XZnode471        7.327508443 0.77326379 270.693709631 6.56751156 0                        
C2402            1                XZnode516        9.14292589 0.78621999 302.372715196 3.53670239 0                        
C2403            1                XZnode3254       16.198314821 0.624129269 402.471301096 4.15365648 0                        
C2404            1                XZnode511        8.338156966 0.776689366 288.758670278 5.41570377 0                        
C2405            1                XZnode2913       9.740535062 0.78722443 312.098302816 7.43391228 0                        
C2406            1                XZnode3168       7.281877006 0.753912879 269.849532262 6.56745148 0                        
C2407            1                XZnode3177       5.183312437 0.70993149 227.668891962 5.41568708 0                        
C2408            1                XZnode3164       5.480311746 0.771741956 234.100656693 1.85757446 0                        
C2409            1                XZnode3185       1.293540669 0.813561853 113.733929369 10.58976746 0                        
C2410            1                XZnode3185       7.663003743 0.736154149 276.821309557 5.25397396 0                        
C2411            1                XZnode3185       1.656703052 0.74100414 128.712977273 2.70783854 0                        
C2412            1                XZnode3184       6.641098033 0.696766274 257.703279629 5.87414837 0                        
C2413            1                XZnode3163       5.820402834 0.74037214 241.255110489 4.15362501 0                        
C2414            1                XZnode3185       3.794810007 0.740040546 194.802720902 3.53671169 0                        
C2415            1                XZnode3167       4.759016956 0.730491938 218.151712263 4.73590136 0                        
C2416            1                XZnode1381       6.011397866 0.80364314 245.181521865 4.73590708 0                        
C2417            1                XZnode1381       5.572364821 0.811512634 236.058569457 7.43026972 0                        
C2418            1                XZnode3158       2.946969005 0.813751435 171.667382035 1.97025025 0                        
C2419            1                XZnode3156       3.774027785 0.773205027 194.26857144 0.65677679 0                        
C2420            1                XZnode3161       2.801460377 0.735977069 167.375636734 4.50844908 0                        
C2421            1                XZnode3188       2.917179047 0.805624515 170.79751306 5.41570139 0                        
C2422            1                XZnode3251       14.706612482 0.685573825 383.492014024 2.5      0                        
C2423            1                XZnode3333       20.087763554 0.755843972 448.193747765 2.5      0                        
C2424            1                XZnode2936       3.585220085 0.804562627 189.346774061 2.5      0                        
C2425            1                XZnode490        29.284098377 0.768772264 541.147839104 2.5      0                        
C2426            1                XZnode3241       0.545639422 0.719574744 73.867409756 2.93708754 0                        
C2427            1                XZnode3241       2.97974429 0.716113243 172.619358415 4.73586798 0                        
C2428            1                XZnode3252       0.446280661 0.812666518 66.80424096 1.31347346 0                        
C2429            1                XZnode3252       4.007966778 0.821025452 200.199070388 2.62694693 0                        
C2430            1                XZnode3242       5.340505841 0.771262942 231.095344846 1.85756743 0                        
C2431            1                XZnode2890       18.628936265 0.73296248 431.612514472 3.71514893 0                        
C2432            1                XZnode3246       7.856350028 0.758791557 280.291812722 2.5      0                        
C2433            1                XZnode1358       5.00322172 0.810236529 223.678825994 2.87212229 0                        
C2434            1                XZnode475        7.873451763 0.70013826 280.596717075 2.5      0                        
C2435            1                XZnode1419       3.614816313 0.696738863 190.126702829 2.5      0                        
C2436            1                XZnode477        4.301975475 0.737928944 207.412041006 2.5      0                        
C2437            1                XZnode2870       18.812818166 0.673535756 433.737457067 7.93555927 0                        
C2439            1                XZnode2747       8.051353575 0.799027573 283.749071812 11.29916763 0                        
C2440            1                XZnode2751       6.529046778 0.80029562 255.519994874 7.65894461 0                        
C2441            1                XZnode2902       4.212171077 0.691185396 205.235744368 5.57270908 0                        
C2442            1                XZnode2900       0.618922237 0.743021061 78.671610971 0.2321915 0                        
C2443            1                XZnode2729       0.242078284 0.878947259 49.20145162 2.93707871 0                        
C2444            1                XZnode2729       0.139295888 0.710701337 37.322364385 1.31353354 0                        
C2445            1                XZnode2900       1.078266433 0.759051224 103.839608665 2.9370563 0                        
C2446            1                XZnode2729       1.725206923 0.831812333 131.347132535 9.56242085 0                        
C2447            1                XZnode2834       2.1919645 0.811251765 148.052845299 4.40561819 0                        
C2448            1                XZnode1404       2.888151524 0.814600425 169.94562437 4.73588181 0                        
C2449            1                XZnode1406       3.025627617 0.811560297 173.943313089 2.93707418 0                        
C2450            1                XZnode1377       1.97503716 0.80804551 140.536015311 3.9405005 0                        
C2451            1                XZnode1376       1.977763033 0.815558977 140.632963182 3.94054055 0                        
C2452            1                XZnode1374       2.368578982 0.861849013 153.90188374 4.73588467 0                        
C2453            1                XZnode478        1.065496248 0.845288318 103.222877716 2.36797285 0                        
C2454            1                XZnode3194       5.006876575 0.805321722 223.76050982 2.93707871 0                        
C2455            1                XZnode3293       2.167199153 0.810588056 147.214100985 3.9405005 0                        
C2456            1                XZnode2856       4.280820723 0.818006994 206.901443287 7.98973799 0                        
C2457            1                XZnode1376       2.517530529 0.752754349 158.667278562 6.03711843 0                        
C2458            1                XZnode1430       5.053713303 0.770017919 224.804655262 12.93644714 0                        
C2459            1                XZnode1444       9.551562965 0.760097114 309.056029947 4.73589325 0                        
C2460            1                XZnode1430       3.270719895 0.502872136 180.851317253 9.2179203 0                        
C2461            1                XZnode1430       2.549589129 0.630136677 159.674328845 14.50802803 0                        
C2462            1                XZnode1430       4.196399685 0.545330745 204.851157794 20.76825142 0                        
C2463            1                XZnode3319       9.243038069 0.69784163 304.02365153 3.71513486 0                        
C2464            1                XZnode3259       7.684125231 0.744755309 277.202547452 2.5      0                        
C2465            1                XZnode1347       19.217640829 0.774434621 438.379297291 2.5      0                        
C2466            1                XZnode1345       19.733763829 0.773742474 444.227012115 2.5      0                        
C2467            1                XZnode3305       12.197171669 0.726229055 349.244494147 2.5      0                        
C2468            1                XZnode3306       4.189494192 0.820804041 204.682539364 2.5      0                        
C2469            1                XZnode3306       5.163597736 0.771776803 227.23551079 2.5      0                        
C2470            1                XZnode3306       4.554011787 0.76925808 213.401307099 2.5      0                        
C2471            1                XZnode2958       4.049415796 0.641998066 201.231602775 5.66861439 0                        
C2472            1                XZnode1331       26.86613088 0.713885293 518.325485384 0        0                        
C2473            1                XZnode2864       9.747538467 0.638314907 312.210481363 3.99486423 0                        
C2474            1                XZnode471        10.913295821 0.743598415 330.35277842 10.8313961 0                        
C2475            1                XZnode1344       8.785820229 0.73100224 296.408843142 10.58977413 0                        
C2476            1                XZnode3137       6.206057752 0.625027282 249.119604858 4.64385557 0                        
C2477            1                XZnode3264       7.444837065 0.752423103 272.852287237 5.41569805 0                        
C2478            1                XZnode2912       1.403452267 0.823289482 118.467390728 1.85754621 0                        